Circuit: * C:\Users\Usuario\source\repos\TP_FE\Spice\3 quiza.asc

Number of points reduced from 1000000 to 65535.
Direct Newton iteration for .op point succeeded.

Date: Wed May 22 22:36:22 2019
Total elapsed time: 0.168 seconds.

tnom = 27
temp = 27
method = trap
totiter = 12
traniter = 0
tranpoints = 0
accept = 0
rejected = 0
matrix size = 7
fillins = 0
solver = Normal
Matrix Compiler1:      12 opcodes
Matrix Compiler2: 433 bytes object code size
