Circuit: * C:\Users\Guido\Documents\GitHub\TP_FE\Spice\3 quiza.asc

Direct Newton iteration for .op point succeeded.
Semiconductor Device Operating Points:
                        --- Diodes ---
Name:      d1
Model:   1n4148
Id:     -2.52e-09
Vd:     -5.00e+00
Req:     1.00e+12
CAP:     1.95e-12



Date: Tue Jun 25 16:22:48 2019
Total elapsed time: 0.158 seconds.

tnom = 27
temp = 27
method = trap
totiter = 13
traniter = 0
tranpoints = 0
accept = 0
rejected = 0
matrix size = 7
fillins = 0
solver = Normal
Matrix Compiler1: 196 bytes object code size
Matrix Compiler2: 433 bytes object code size
