Circuit: * C:\Users\Acer\Desktop\GitHub\TP_FE\Spice\3 quiza.asc

Number of points per decade reduced from 1000000 to 6954.
Direct Newton iteration for .op point succeeded.

Date: Wed Jun 26 00:00:37 2019
Total elapsed time: 0.171 seconds.

tnom = 27
temp = 27
method = trap
totiter = 12
traniter = 0
tranpoints = 0
accept = 0
rejected = 0
matrix size = 7
fillins = 0
solver = Normal
Matrix Compiler1:      12 opcodes
Matrix Compiler2: 433 bytes object code size
