Circuit: * C:\Users\Usuario\source\repos\TP_FE\Spice\Ej 2.asc

Direct Newton iteration for .op point succeeded.

Date: Wed May 22 22:34:20 2019
Total elapsed time: 0.060 seconds.

tnom = 27
temp = 27
method = trap
totiter = 6
traniter = 0
tranpoints = 0
accept = 0
rejected = 0
matrix size = 12
fillins = 0
solver = Normal
Matrix Compiler1:      36 opcodes
Matrix Compiler2: 920 bytes object code size
