Circuit: * C:\Users\Guido\Documents\GitHub\TP_FE\Spice\Ej 2.asc

Direct Newton iteration for .op point succeeded.


Date: Tue Jun 25 12:43:38 2019
Total elapsed time: 0.561 seconds.


tnom = 27
temp = 27
method = trap
totiter = 6
traniter = 0
tranpoints = 0
accept = 0
rejected = 0
matrix size = 12
fillins = 0
solver = Normal
Matrix Compiler1:      36 opcodes
Matrix Compiler2: 920 bytes object code size
