Circuit: * C:\Users\Acer\Desktop\GitHub\TP_FE\Spice\Ej 2.asc

Direct Newton iteration for .op point succeeded.

Date: Wed Jun 26 00:42:55 2019
Total elapsed time: 0.047 seconds.

tnom = 27
temp = 27
method = trap
totiter = 6
traniter = 0
tranpoints = 0
accept = 0
rejected = 0
matrix size = 12
fillins = 0
solver = Normal
Matrix Compiler1:      36 opcodes
Matrix Compiler2: 920 bytes object code size
